Version 4.1
SHEET 1 1372 1100
WIRE 368 -16 224 -16
WIRE 576 -16 448 -16
WIRE -880 96 -880 48
WIRE -736 96 -736 48
WIRE -592 96 -592 48
WIRE 224 112 224 -16
WIRE 368 112 224 112
WIRE 576 112 576 -16
WIRE 576 112 432 112
WIRE 832 112 736 112
WIRE 944 112 832 112
WIRE 1152 112 1024 112
WIRE 736 144 736 112
WIRE 1088 192 976 192
WIRE -880 224 -880 176
WIRE -736 224 -736 176
WIRE -592 224 -592 176
WIRE 368 240 368 224
WIRE 464 240 368 240
WIRE 736 272 736 224
WIRE 464 368 464 240
WIRE 1088 368 1088 192
WIRE 1088 368 1024 368
WIRE -240 384 -368 384
WIRE -112 384 -240 384
WIRE 224 384 224 112
WIRE 224 384 -112 384
WIRE 336 384 224 384
WIRE 384 384 368 384
WIRE 944 384 864 384
WIRE 1152 384 1152 112
WIRE 1296 384 1152 384
WIRE 512 400 464 400
WIRE 1088 400 1024 400
WIRE 336 416 336 384
WIRE 384 416 336 416
WIRE 576 416 576 112
WIRE 656 416 576 416
WIRE 784 416 736 416
WIRE 864 416 864 384
WIRE 864 416 784 416
WIRE 944 416 928 416
WIRE 576 432 576 416
WIRE 576 432 464 432
WIRE 832 432 832 112
WIRE 928 432 928 416
WIRE 928 432 832 432
WIRE 1152 432 1152 384
WIRE 1152 432 1024 432
WIRE -368 448 -368 384
WIRE -240 448 -240 384
WIRE -112 448 -112 384
WIRE 368 448 368 384
WIRE 368 448 224 448
WIRE 784 464 784 416
WIRE 224 528 224 448
WIRE 784 576 784 528
WIRE 1088 592 1088 400
WIRE 1088 592 976 592
WIRE -368 608 -368 528
WIRE -240 608 -240 512
WIRE -240 608 -368 608
WIRE -112 608 -112 528
WIRE -112 608 -240 608
WIRE 512 624 512 400
WIRE 512 624 368 624
WIRE -240 848 -240 608
FLAG -880 48 Vp
FLAG -736 48 Vn
FLAG -592 48 Vbias
FLAG 368 224 Vp
FLAG 368 624 Vn
FLAG -880 224 0
FLAG -736 224 0
FLAG -592 224 0
FLAG 224 528 0
FLAG -240 848 Vbias
FLAG 976 192 Vp
FLAG 976 592 Vn
FLAG 1296 384 OUT
FLAG 784 576 0
FLAG 736 272 0
SYMBOL voltage -880 80 R0
WINDOW 123 0 0 Left 2
WINDOW 39 0 0 Left 2
SYMATTR InstName V1
SYMATTR Value 2.75
SYMBOL voltage -736 80 R0
WINDOW 123 0 0 Left 2
WINDOW 39 0 0 Left 2
SYMATTR InstName V2
SYMATTR Value -2.75
SYMBOL voltage -592 80 R0
WINDOW 123 0 0 Left 2
WINDOW 39 0 0 Left 2
SYMATTR InstName V3
SYMATTR Value -5
SYMBOL cap 432 96 R90
WINDOW 0 0 32 VBottom 2
WINDOW 3 32 32 VTop 2
SYMATTR InstName Cf
SYMATTR Value 2.7p
SYMBOL res 464 -32 R90
WINDOW 0 0 56 VBottom 2
WINDOW 3 32 56 VTop 2
SYMATTR InstName Rf
SYMATTR Value 82.5k
SYMBOL current -368 448 R0
WINDOW 3 24 136 Left 2
WINDOW 123 24 108 Left 2
WINDOW 39 0 0 Left 2
SYMATTR Value PULSE(0 4u 1n 1n 1n 2u 4u)
SYMATTR Value2 AC 1
SYMATTR InstName Ip
SYMBOL cap -256 448 R0
SYMATTR InstName Cd
SYMATTR Value 25p
SYMBOL res -128 432 R0
SYMATTR InstName Rsh
SYMATTR Value 5G
SYMBOL res 752 400 R90
WINDOW 0 0 56 VBottom 2
WINDOW 3 32 56 VTop 2
SYMATTR InstName Rfilter
SYMATTR Value 487
SYMBOL cap 768 464 R0
SYMATTR InstName Cfilter
SYMATTR Value 330p
SYMBOL res 1040 96 R90
WINDOW 0 0 56 VBottom 2
WINDOW 3 32 56 VTop 2
SYMATTR InstName Rf2
SYMATTR Value 825
SYMBOL res 752 240 R180
WINDOW 0 36 76 Left 2
WINDOW 3 36 40 Left 2
SYMATTR InstName Rg2
SYMATTR Value 162
SYMBOL AD8656 416 400 R0
SYMATTR InstName U3
SYMBOL AD8656 976 400 R0
SYMATTR InstName U4
TEXT 272 768 Left 3 !.tran 20u
TEXT -352 280 Left 4 ;Photodiode
TEXT 272 856 Left 3 ;If you're having trouble with simulation try the following:\n \n- Ensure that LTspice circuit folder is unzipped.  LTspice won't \nbe able to locate subcircuits if the folders are still zipped.\n \n- Update LTspice - devices that have been recently added to LTspice\nwon't be available unless you update by clicking Tools -> Sync Release.
TEXT 272 696 Left 2 ;.ac dec 100 1k 105Meg
RECTANGLE Normal 0 688 -448 320 2
